256
Lattice="4.236854996336203 0.0 0.0 0.0 4.236854996336203 0.0 0.0 0.0 4.236854996336203" Properties=species:S:1:pos:R:3:vel:R:3 pbc="T T T"
Al -12.757318198396751 8.993771045632290 -14.635858301783642 3.817570519809319 -9.514881710101729 2.289870999486867
Al -3.279229802646946 -12.044501750045471 -6.254706485180547 2.303917302559325 2.213901301228310 3.039003721326506
Al -21.463860737999632 14.671989172378952 13.139156496553689 0.247276709983302 -0.971342249124408 -1.651290298313366
Al 6.305556768428769 11.669694891380688 -1.372025672897068 1.906491954117948 -2.640374328568642 3.036092537872051
Al -5.130529573118804 5.562233919160884 7.720071101712120 11.719113120908299 0.185118910468685 5.123922191323785
Al -3.962717937487571 -9.358860521309378 5.996536358791434 3.147752291553861 2.816247663073309 -9.295099545448444
Al -20.049613358751216 -4.635404392310038 12.648540927332059 -4.222984430130033 5.823414274554495 -0.343244364925827
Al 16.496402415131723 7.830955589907051 -15.011798860997162 7.380171615814888 1.191610406781108 -5.092667880398388
Al -0.982758315676620 3.005432928892734 8.342992594955311 -4.870232500565459 -5.113011031044651 -10.074879995183490
Al 5.811013821144472 6.063198682661664 8.176650373851858 2.162895572454923 -7.294818745010746 4.641120481655576
Al -5.720340486472668 0.331062923309961 2.890916166131202 -2.492483628744688 -10.491153947208423 -7.786761242562069
Al -21.852123838582358 2.704407035184811 20.688465379343480 4.537467400036092 -9.937755929785896 -5.876529217035074
Al -4.076347930121066 -6.942110452337512 6.017272051483332 -7.082461322527008 -2.722905553354957 6.396955536447680
Al 29.441949371079478 23.873762282984281 29.367668091980917 5.938315630034384 1.135125552590595 0.627224010983432
Al 22.798750210821307 -7.175326685689757 30.974903978213845 22.522513952020649 -4.828823778104083 -0.158274126646307
Al 2.458327437892794 -2.813694885046174 14.084315465906235 -9.785142638696994 3.503367631596158 0.238955368676968
Al -15.291423997456580 10.004770772167287 2.780928488205218 1.350411317833307 5.945230653574924 -10.490794049485746
Al -8.131509620115825 -2.066835238956484 10.360450858816664 1.920468493221578 -12.356371454847061 0.702887132278727
Al -21.731401435445044 -1.448158349859354 1.014047168867716 -7.265042961356370 4.193988639004666 -0.664408804836872
Al 13.509052052985801 8.458271838051564 -2.446090099253150 -1.484749853478144 -1.902050262574172 10.408354640289790
Al -19.905232872120578 21.768880085724444 4.679259769766118 -4.562899618625792 1.157700087018176 2.175759533016766
Al 14.101221883325881 0.913123954913859 2.658980927902980 -8.605607989352402 -2.943198702599054 -2.798185578684864
Al 7.116870639124696 -2.389612699661999 7.286260108685181 -2.842004938077051 4.532140778542550 -5.166148164550505
Al -6.247086727471707 37.279455676789638 6.034722962114706 -4.649001391858867 -9.877642592847131 14.281303995675730
Al -6.004981799086281 3.672841741400880 0.951869453603598 6.913534941729005 -0.802720449214504 0.293857854084511
Al 13.179615985404249 13.373842806980552 -23.764116736116137 -1.288222141774510 -11.603656355231989 2.113922863979222
Al -19.343755858758453 9.902976348892903 3.532814346840417 -11.011460264463386 5.174568846341352 4.226226235970312
Al -2.265759505574540 19.437987830294464 22.256952958731297 -0.697662889366112 -2.947620114310701 -0.774821047111565
Al -15.215282090763043 18.115532416823694 35.998881951218998 -3.751922766376869 1.706441289125689 -1.342975717832984
Al 0.655941514076958 -7.686896481412333 -4.223806845686624 -0.065594305399956 -2.640445320687475 -1.882130851343755
Al -5.378116075901954 16.416108735740657 10.945420287090098 -3.935935533096540 -4.486955030653239 -3.233279749483776
Al 30.094191294145581 9.897959476848319 -5.684040513798688 2.484078342136230 -0.683890197630118 5.906767739284593
Al 6.992517018898746 -0.908606507650235 -3.887822856552290 -5.810180852593575 -1.988637643692244 7.716965578709918
Al 0.782651017090887 1.824010515104303 16.438070362457982 4.261676977113332 -0.765023311702998 -4.241553599707630
Al -16.373887144473155 14.029090167403778 -0.720687648911607 -5.089538973534662 4.350464337783060 0.389680102515982
Al -5.567409456320600 24.265718828675649 -7.344067704068541 -0.999863252524475 -3.252229950774794 -4.741421357874697
Al -6.031507692842331 1.490977497722594 -7.777124610350185 8.692806329399129 7.603094862832153 4.509632240211988
Al 15.598566261325956 -9.556430072084675 -3.804198447928099 -8.958772631354508 3.546274860205671 -15.624969601153653
Al -17.601966185712932 13.679074180525205 6.049021067511736 4.280471521909114 -6.483361624255426 -0.471612057916787
Al 2.708054090142812 -8.762490799199716 41.834833371276417 5.401352481563364 10.099234679496416 -0.844441504048442
Al 20.737809869019795 10.817112249157322 34.457408274235391 8.217211289081458 5.106486594495409 5.603130696142245
Al 14.290179562852858 6.319527331403886 25.516571906405250 -3.732794133366621 2.192101556928975 -3.208241798430986
Al -17.338564143875594 24.893728402176773 7.804169186008562 2.057112675973110 -4.670343733030944 -11.596789038060420
Al 26.746713437424997 -6.809885360449116 18.145593646429866 -0.696572437372998 -2.235627831908682 -2.186800926513762
Al 4.777121795082136 -2.957908033059502 24.972675664376293 -4.821474508603329 -16.952645811398828 5.259198708248388
Al 8.502161343329540 17.251630534031726 7.548742937197226 -5.535678141067687 -0.705589456981605 -3.371784837319749
Al -14.630440975292618 6.030407368813667 26.350814004108098 -3.519641773835642 6.895463591300699 2.005087501775797
Al -16.891601045232076 -1.571564695200296 42.895496037494986 4.891731581575893 -5.082870947342100 2.219230431588270
Al 0.851290597163139 16.446616619572431 -16.573522635614125 -7.114022429212142 15.699925597714461 7.113433559484226
Al -19.390216722144153 17.194133084942191 7.922164840373132 -0.215138273234005 1.763024475395879 4.066381604397763
Al 0.744894927040597 25.115089413342879 -6.586838728577202 -0.081971362262017 -7.444576282404625 2.949997484095799
Al -15.888209610927525 -0.461182720612516 5.248435029711246 9.236601315488905 -8.202493779120736 -1.517620253101119
Al 36.254707061249228 11.138202112677707 -19.039037058120680 -1.789717051313200 -4.299467690949789 1.283495394645539
Al 9.874735036124974 13.924246033775892 0.905637539067511 4.169045545084678 -8.314545372233692 -3.794648671850514
Al 15.076332066771844 5.310857588330583 18.564665690324119 -8.239642244602303 3.541249711133494 0.947906422718908
Al -1.254051395740659 27.425588406373080 17.930040318882664 -6.866872960943266 -5.512867873396059 1.896003904389278
Al 2.960662254146273 33.532987635887238 -23.993860635137878 -13.388340432102165 -18.647549855589315 -5.346617479490763
Al -1.865470867955010 10.217711252860170 13.102769558588806 1.664999479770541 -1.272725875799386 2.789704073535307
Al -12.664627025674697 31.937439620833441 -4.752937127256047 -1.550832933702033 0.207190786847293 -2.380437382595519
Al 6.517892242687475 21.575535452772783 20.770062540038019 -1.836113915779766 6.528800553418955 -6.452099992584541
Al 4.257345103647364 20.301647818534143 27.845671552425937 -0.606190960722435 5.077713272053382 6.572922774832532
Al 22.966835056539029 27.713870432854893 9.034023321165282 4.426158976415442 3.584692514482773 7.394487996973184
Al -6.293449177652931 4.300428118682851 26.847068592779731 -9.042572983496138 -7.457821306190087 -2.897820055158678
Al 5.090476315091521 12.795088051174192 27.435892649173653 -1.724634715373442 -2.884224881612876 -2.181767476771238
Al -5.105536598176281 -4.550484539338410 0.179541947708680 -1.241877799084181 -2.761166205313240 0.585045919214917
Al 0.265219934882638 0.941257253960576 10.168169613581707 -1.567118540289778 4.698750053134643 -8.838237280173457
Al 8.631206579784404 -7.104574554988605 -1.300380959998270 -7.498328811762828 0.328007590402755 3.663152567232896
Al 0.099586291146765 -14.631795886675386 -2.804976054064758 -6.468912264556185 -5.230181825006574 0.683577414676521
Al 3.193517767281030 15.025671755631924 20.738121832281884 -3.550796439257235 -8.505583783899443 -1.953929778272919
Al 11.990522726853374 -3.709434177009543 2.981935162275874 1.351040165549815 -6.513627142687914 4.557878422859672
Al -11.693332447713434 18.221787810353586 5.528852587373384 9.089799288102581 4.472306068055429 -1.282326321310571
Al 2.311145053927994 15.656927032585848 24.506852164131423 14.032097251742725 2.399107433888823 -0.671740329430010
Al 15.659775878073408 0.913588932879879 -4.329231029020649 -3.105463094805859 -0.058242744754582 2.330905478277470
Al -0.334721652758870 5.013835251338595 13.798190192391447 1.554432545683561 -2.467793063977492 3.238883630815622
Al 22.951120647476277 4.306180913975588 6.507425883682993 -1.306684099554045 6.002925245323659 -7.173882895076257
Al -24.507115944564624 3.706432698446024 30.647402879460738 0.039902877602036 -5.667029789866032 2.557344222376135
Al 15.120632453372890 16.131461047715824 17.724939223683169 -0.591348670416035 -13.565054496722976 -1.968823119140740
Al 1.682266226173500 -4.174544645238482 5.201818994015635 5.924493788917530 2.233489919509545 -3.397043079713482
Al 3.868438689439706 -18.123113410006162 17.604876205374776 3.860647242562411 2.302133270991717 -3.271815150875762
Al -3.864752075225693 1.152251039608789 12.717871755661267 3.530002860720491 -0.217652389746306 13.757764352340953
Al 11.274800022200575 -6.945021768733648 -1.276219877368528 3.622870375585581 1.088354044856331 -3.514948050194321
Al 9.042317257591364 3.557877810232898 2.960619267674983 -6.176735128240333 2.255045075797823 -7.872072838481115
Al 1.434112816298923 13.047588884885196 7.965498442086049 7.343109602242709 -0.713940802325440 7.300222928836768
Al 3.654457836228394 2.833012017960931 -16.002666929507384 -3.687754566982476 4.859516910176440 -1.589770425141751
Al -5.094194010480597 27.496438110696200 19.845964769454106 0.342533011817960 1.991964365482200 -6.258623716606480
Al 15.774150482708063 7.314220555501836 -17.595769574991817 0.682690362155789 -7.767565140545636 -7.198634279617662
Al -1.748651356352556 -2.678572331587236 3.500043368500153 0.039804890089885 -6.962098865690307 -2.242605091791252
Al 17.991760337310264 -13.282358860374853 1.713084270283157 0.728724632059327 0.898232286728774 -3.830208176681711
Al 0.265263568846195 16.300073835488593 14.338250743815816 1.121824843268917 -6.459034050082678 -4.839408236197888
Al 32.394051647529047 -3.232914827432053 -5.792575516406560 -1.211951953809767 1.847419686694249 -1.219902414244151
Al -11.689896917853947 16.648386947698366 -8.670969735011674 2.624200456364603 -10.213140505124571 1.538599698017639
Al 21.440588560730827 -21.001490505105316 38.784150518556494 -4.252483503455583 -0.149889334898301 -6.765104324257251
Al 31.405826486042653 13.041099961231948 17.803189216288271 2.272827077560580 5.806617071694504 1.331840892374869
Al 8.812996154351765 -21.301450037421770 -1.516564424307705 10.100557597701364 -0.222410641652316 -3.827544807399113
Al 15.615274599341133 6.037233113499284 -10.909808740732915 2.030535808143635 4.748277606642575 4.422165626865011
Al -3.615713781682178 -13.024328468713289 33.465657603529571 -1.426560176856873 4.574111309422554 -2.824274340279886
Al -11.741819898295496 15.390091291776837 -18.795150464196773 0.691821203822854 1.735824030278968 3.777061324272477
Al -10.851761640629840 2.520044053037832 -8.308911317604000 -5.634408245906982 -0.987987576244002 2.737208723859990
Al 4.036323953606137 5.768359406852857 3.076213578129080 3.023481485882535 -1.274398542959999 6.223065862573195
Al 11.558143680944353 12.236432353675774 -19.447751881034133 -5.442285506973341 1.778312109880357 -9.477029571510577
Al 4.628520206834158 40.051156189121755 10.646610042626765 -6.877094284762706 5.676209434148513 1.549882962123855
Al 8.277860609946160 9.849294823372128 7.722046021307837 7.370349387768797 -6.112478242342676 2.528305941825485
Al -4.670843517224267 5.406144258550831 2.601493202385044 -6.426749276875289 1.064634885349871 -3.471457576793339
Al 22.834725006205826 24.602165306878391 4.055292381410553 -3.365709027721973 1.534310563701487 -7.011488574056746
Al 8.346517985272646 8.424495850650260 13.574875155067708 -2.837719036301194 6.778594676267565 -1.180524614274914
Al -13.556395706061242 -5.799607078740340 23.557688928312331 -6.136885563553344 6.689260212223426 7.699908863828020
Al 19.019283343014511 3.754270154344917 -4.186319407627542 0.383998237024719 -7.744755825395384 3.537204796664087
Al 7.987047759886812 -1.667003665637867 -18.588146670228213 -8.466400116686000 0.935524692253258 0.603315686675554
Al 9.580161972554960 6.394661739462846 11.594330801201723 0.842281683618509 4.851170277239126 0.068253342347651
Al 8.672331166744542 7.368802933411825 3.962168889164167 7.006008551097985 0.717237850081337 -4.178567606562991
Al 23.199241535219226 -8.472313094709326 10.893162782766831 -12.039972334681231 9.986721692261494 8.240375393699573
Al 27.949199703853935 9.306109031267992 12.564443646394395 -6.879647410571322 -0.500315431037968 -6.288505175390551
Al 19.373623181396681 18.131718941905923 -4.744176294010829 -6.916802782523003 -1.094571313488775 0.261278947289330
Al -6.087519769972459 10.109091530472424 -8.458612201227499 0.092435914753502 1.124886485505589 4.412801388858847
Al 6.939553311204446 22.846367313922457 -4.993867809788216 -2.792769387754289 -1.458531752286229 -0.294869009126656
Al 6.516607393501022 6.184051342733294 1.448876952968960 -4.441700230360819 0.167646922152766 -3.469522454333756
Al 27.295601571335435 24.671312775883983 -9.792122889096099 -3.392883261736616 7.130666334539884 -2.444398260607522
Al 6.237452912793254 15.259473272303051 -6.744410736759945 -6.508790055866612 0.571188504971443 -4.187607895047718
Al 8.747890730817403 22.060658421899170 5.400814738359412 -5.919930586172803 -6.357867330708128 -0.361936069449287
Al 1.879185214564688 20.487510056853349 9.671144998084308 8.978056689913940 3.004149908374976 5.213591132846268
Al -0.703595040249013 3.337789164965518 -5.619307865113524 1.396854121753430 1.779184769653403 -6.024337225843011
Al -16.107762770702895 10.828137984506402 10.464996310140645 13.167155513722674 -12.603189818123562 -1.349902127827867
Al 26.286069569030872 11.903130976562901 20.096356272735257 3.510057333938770 -4.205644185410910 -1.799246234692901
Al 9.176820877074892 11.150376211062653 13.256620326141450 -1.316706264203956 -2.870354564253081 -4.147224344474341
Al -10.191482693289878 -15.175176921474637 3.224643237919514 7.308386503437672 7.851094952080182 6.463321563551992
Al -2.960888386893311 18.970799317374993 10.172008593964303 -6.316570670515157 1.258199928765751 4.344309591788704
Al 2.883068969006195 3.226649086140995 15.377065016667034 -2.392410081136135 10.029466670230885 3.709300005510134
Al -11.778166204943714 21.397071315516754 -3.705734217603094 -3.089679004354660 -6.519988500811197 12.729048121453468
Al -4.220314802584998 15.566023519285302 4.209956172939481 -0.085038205783108 4.294868919509793 4.028203689817413
Al 8.277620855609197 0.064038347099997 -14.787999629259353 1.376736073323104 3.881515394212581 4.006786483429209
Al 8.349859743414145 0.770494065700424 10.231690563616654 3.767533100590990 11.525667584114590 7.713163402020130
Al 0.062365322645713 -28.602102879570037 -8.746401233613140 -5.442517295948806 8.695844352876263 -2.773931907813938
Al 5.522773601363171 9.116399497260510 7.031070492656802 -7.936410328937334 1.367410059943502 -6.819841493457428
Al -8.028523353613920 22.325777409342447 8.203758267007885 3.837346886952589 -5.457261324836089 1.568483632108498
Al 13.633918777675259 -2.860269512362859 -18.188762251003755 -0.619712317406309 7.461548381327882 -0.053736007775708
Al 8.768189506638356 2.096950556964508 0.536869091179817 -4.564543616616855 4.215014179488869 -1.175372352744653
Al -7.385664595814618 14.755347772663525 -10.530078436773517 -6.166650446738194 -2.628899228723227 -4.811112049822359
Al 8.922944324594965 12.046630444041707 -10.292717839813912 5.930746255200167 6.359797644033683 1.949159997446220
Al -1.825555009453863 11.246565690646449 10.490559328874529 1.804021899951638 4.099844699197241 -1.975273371951975
Al -4.100108962278664 -10.480995374443099 17.422695312470292 6.818505349402073 2.193966928982335 6.045642709939480
Al -4.448903213457395 1.036321384811096 5.768438847419675 1.882698225371214 10.442127296987930 5.604031814452153
Al 13.981181967971031 5.680596182537849 14.563389890768546 -1.216792709439459 -5.295402324521626 -2.970949836272049
Al 0.811306290199612 -4.119172500543234 29.312449103966408 -9.149134510891891 -7.798390709437797 -3.102666798006483
Al 6.708028537729936 11.094609515306923 11.846623820365339 -0.460788199024472 -2.399119470444672 2.077740379896349
Al 2.791773279697101 1.862385869843613 -8.888052430796179 2.293336494720365 1.306303113742467 -4.193044825449587
Al 26.299852932593247 17.767392588734786 -2.780411861009219 -3.288183726428521 -0.613673210363394 0.597612701349770
Al 6.406267520492134 20.364094118406893 1.004922367214949 1.905863201509190 -3.878742193630724 2.700991140143816
Al 16.791953066027315 -6.987818242477472 15.339100748984659 5.178497358497728 -4.387601674402205 0.013842895098079
Al 19.456532703953815 18.755930539476054 22.432113762981391 -1.212279398852491 2.034753816903766 4.263772001745249
Al 25.567383564565617 -4.626770442934296 10.032801131828707 9.816283768163903 5.561202371524582 -4.381584876223704
Al 1.114244293317503 -9.525730484087113 14.779279558934054 2.888693022729446 9.243519803375618 -7.206367779815091
Al 15.433382089076058 -14.406229994806845 0.989534371768203 -3.570353664423757 -10.307382873249496 3.354943431888194
Al 14.697463048979998 14.511412523831789 7.903270834074131 -2.587748089409555 1.392295174870910 -2.441708160896990
Al 1.130095807885851 23.283118283425836 6.082014821984886 -2.867834158098249 -0.290857210740721 6.262905055901860
Al 12.549590344912568 1.601228841767493 0.684419925313893 3.385780344883384 5.971273973817627 -4.948554687321281
Al 28.508573692788659 19.034003654603907 15.075098661970863 -4.890603272591809 -2.291942813454918 1.054347667888133
Al 4.222188774681455 -8.663732193958975 32.894279551388728 0.931114026198751 13.241606338907333 3.066154161564040
Al 5.913991904997157 17.586469784865553 34.478078916329650 -7.678514977761115 2.281005777192487 4.279594901200501
Al 4.904061422652947 -1.348958157074411 5.828223227727674 -2.163026710742525 -1.885118447726853 4.248731820341906
Al 3.344988022386798 -8.128928540113142 13.219809593643424 -10.065388971934409 -2.572416957238746 -3.450301458656639
Al 25.915905899098682 19.626783076721342 -8.920084460189248 -0.340166980820976 3.805510118665702 0.362921137014713
Al 21.903049763204720 10.418936786146002 4.458532579315922 4.544346996068518 -3.254074070459112 3.794191656451482
Al 11.133334103352736 7.740114445008200 14.543915489167668 -1.165933894753772 -3.071517926731758 3.337577168385755
Al 34.087243291621775 -15.907877198161959 7.281832498729999 -11.990891221415856 3.074166200580410 0.801774443671170
Al -19.186450173787875 1.397124830406335 15.496772514726590 -0.111009281602308 5.478971954940422 5.132308909532635
Al 15.861484017072915 4.090003045370952 -0.880114294418340 11.745058163246039 -3.428941989477361 -1.596337418643830
Al 14.159138029336635 9.209513065331272 -8.693256494066350 1.836526501600203 3.380835723800154 -1.907670772604849
Al 24.484781321400956 30.361627876668262 4.713192545578380 -0.201111105743777 -0.959865438483212 5.295839592323866
Al 16.815769125810547 16.131322853421498 2.855779004695941 -5.556850340466780 -0.490115126584769 -2.997368718505063
Al 7.027533409103240 0.665423736310937 15.282648603892877 -6.553966797236355 -6.067025804668869 5.608935881028101
Al 28.649332123408719 4.474424990226217 13.198434251056369 5.106896512876928 -1.264073315357115 2.549041365100027
Al 0.244305760430437 5.651730059616046 27.633577577304802 2.899233516467703 -0.408294603295267 -2.234139392259078
Al 20.293273082579169 6.143676067468771 14.425086674199992 -0.633549641069912 10.600549126637318 -12.142601484415117
Al 13.120603041567620 3.160439672934896 24.618146214290629 7.883302904389344 -3.990133896495978 9.487158703440411
Al 14.918514156301844 -18.665179442044572 -3.217882873613422 -10.940970401513848 5.103062569764442 4.715840688367168
Al 10.221617418769279 9.655099124150810 -11.525808585570886 8.760674558299383 3.324123418566603 -11.646484565384634
Al -9.546734209605605 26.955333465063589 -28.741009199668362 3.558900030499701 -1.558678170345488 -1.915920910453632
Al 18.038579946467806 28.694487403114081 17.432856004400634 2.345377170045904 0.177465884252513 6.362980976414831
Al -0.814270591914498 11.112690738073992 -11.521265654924006 10.546031705976269 -5.016704838419603 4.039735349204538
Al -5.685821850158492 5.851879018645056 5.112553444222096 -10.319552961490883 1.134751249907948 13.617923112905046
Al 6.549292646689545 14.125765331403418 17.198842100335078 5.044399008037526 -1.320647476451537 1.344403652881666
Al 9.074831837135385 26.290422736478003 10.845991578765515 0.323482741966657 9.398564141590430 4.581691711218502
Al 18.819885166841026 7.094835991083070 3.032608745223831 -4.289643874517727 -0.431487411168072 5.329374990896102
Al 6.053217599235099 9.700594552082942 16.963217201400731 12.383932700193274 5.081715384136971 -5.270541845630932
Al 13.024805354389418 28.772260985763602 8.081003291903388 0.221945840363348 7.238198823411957 0.560451340117259
Al -18.737149412617384 16.778368238053975 22.091422355895663 -5.888715980554622 4.500849094808419 -1.642648910826323
Al 6.030847124214810 11.831538514318144 23.583732998565093 -5.400222661096318 -2.732914902423477 2.657574959760383
Al -19.803293430384983 15.958789091090095 27.499109536491250 -6.646255752707657 -7.709481514514166 1.946473452885979
Al -8.797936098672594 2.338610211109798 22.435724105370273 2.284717226676925 -1.129355133881776 -5.119589601842672
Al 33.709251447138200 1.664537404175261 20.719278603386279 15.335827327806314 7.876880070870333 -3.909730815207681
Al 27.460892119680352 2.270377346732986 28.550094049080212 1.578939215710565 1.800331008139328 8.166084802684523
Al 3.100925514781937 4.375961714489199 7.197029964867878 5.790991122658560 -2.154572784017863 -12.046386113663868
Al 7.746230605726209 12.117395991820159 -15.889566143431054 -6.444300344372494 -6.239874582375020 -2.911835643822112
Al -6.192307020871175 -2.354402757178291 -18.441548005628611 2.453918610412980 6.672339690609308 10.559535422025871
Al 7.447648072309971 13.378411606280597 12.587644411759785 1.289179372847730 -4.556626119140742 6.082980022358500
Al 14.111516785428735 -26.690367109082036 -13.619222172173206 5.805956142060798 8.754112748329332 -7.877243802315371
Al 2.724136222072399 -3.312523295907710 10.249922447410350 -1.504434195218566 0.801004059235738 -3.919703867992526
Al 22.221317054014460 0.721172151442640 28.133030179069575 -0.565821838718758 2.636912380613497 -3.637328660741447
Al 18.148562848305797 10.294111019449117 7.115965437270249 8.243389128720777 6.419990844645848 2.930867848483684
Al 10.635510067223244 7.471713645865762 -16.274217075924522 -0.486695217938141 -0.162245760841050 -1.425683756545465
Al 9.568971753108048 -18.810663934044292 -13.494402541041005 -1.111257965190807 -4.499535355090114 -16.982708337165047
Al 16.548860478128891 -11.619027184008388 20.612663191655624 -1.322107923988215 -4.125296708614469 5.970840776317502
Al 7.894465873430303 7.721000482707383 25.782405339115424 -1.771689529540176 -1.613544866168278 -3.729383451204761
Al 5.925754412166390 -9.856742796093755 14.022261624720590 -2.300908174715554 -5.420179611371081 0.514448586073199
Al -5.550334743816663 -4.692836227646540 23.076867984978886 -3.062144780427444 -1.535630983664542 0.902689256630227
Al 16.005368303735679 8.411998748667745 5.169554970500267 -1.011920287671983 -4.667682427097606 -9.103968552458749
Al 27.980793076675042 -4.696728403089798 11.795469851980233 -0.080292245429866 -8.838330285440728 2.275757818788125
Al 26.483753232572038 -1.681122260440321 12.959307652400945 8.050509958273606 7.041953664559577 2.836249576231130
Al 4.345148098128919 20.062395949888717 20.702312566879776 -4.204702314306826 3.435862104460780 10.136216874544109
Al 25.513488214788961 4.983775177246090 -16.735925527225074 2.587901361807413 4.240618045232666 -7.614036317058362
Al 19.276480011030991 6.378212419393871 -4.665245287856459 1.260022302554233 -4.274834058226695 3.014407942407008
Al 12.752897017540867 -0.260767247401423 -1.741972127179731 2.171732617924321 -1.411128365550845 -0.247053598913560
Al 3.402752661713821 11.379733466657813 12.189578027666974 -1.746435665758546 -10.392569855779263 -2.613871807285991
Al 32.935828079600483 11.949290034931646 8.030686724604113 8.295105449159113 8.537995853869994 4.135246385780430
Al 14.969982431983853 7.829887005954746 10.539724506431305 9.334758568592683 1.122011252126357 2.979513024876368
Al 9.976135369494742 -0.186341529760040 16.834597015188741 2.709652866662732 -2.278657306088106 3.609035974868489
Al 35.980449723453098 21.434253034246577 4.440913581106487 4.961945626935982 8.605496092395406 -5.772613103425773
Al 20.255815808468164 13.203471812483778 16.417975006612576 0.287806504258498 -11.620997164155018 -3.012583696859528
Al 6.942745580758767 3.090225770291109 14.986179542887795 3.651265750060284 -0.822071970530177 -0.802336483185294
Al -14.055015001421095 -16.798815308380210 15.329680606043738 0.076624882268850 -5.542225741591969 12.271878707944797
Al 29.130979518552209 -2.269552240080142 6.826072576181589 2.198950357385901 -3.991786768381805 -2.445282705861962
Al 18.567988200997938 8.528499100433788 17.178841585713869 4.083843220891916 8.158714876914987 -2.246966339260712
Al 12.837002113968975 -7.733672889005018 17.814003942761993 -0.268890038928879 1.313001130770771 0.406260995936027
Al 24.914043312640295 -9.074436529428136 0.201525096006789 -11.662144754046402 -0.853468873713642 3.260501772624053
Al 22.214091473044199 -4.336405282644301 -14.769751056052650 -5.061545594537350 8.571048461266553 -4.499830752878358
Al -3.244354088421483 12.610557474865921 4.899147659075598 -3.243734496275467 -1.497079865490761 -0.095410068077266
Al 10.649622915868086 13.322534071215195 -8.210043989038404 9.668476742425540 6.879161816095587 7.933351637691294
Al 31.081523243051958 10.959292018697386 -1.344349714686922 0.854529643398023 3.878233271222129 14.030864126041372
Al 28.050631183345551 5.410785605265299 -18.126557944180810 7.159736987584906 4.900562306919483 -10.670607955531066
Al 24.287786731848378 -0.226469337607731 5.036763587756058 10.146864567342886 8.461402302711335 3.904736284691272
Al 2.721569423544030 29.065720471265724 3.117826768465989 4.100879313297614 -4.862175127934874 5.414786362482380
Al 4.138593683189603 23.681141258593808 -10.658079839454892 1.429285341114525 0.432328829759398 -7.730924845320981
Al 4.722060530313835 18.614212650305159 13.589793195617791 -2.550144986150746 0.256742258600000 -7.538758177454223
Al 7.545934065570082 24.177891496706209 6.369071898059350 6.611175904373434 11.768557249408261 6.976510684726080
Al 3.630537497328702 6.328616455134027 34.554098216251248 -0.306388828751841 -0.490860936089777 -1.677566607577524
Al 18.438599581250148 15.133385938137531 11.821341732760896 -3.730991756256634 1.761995457903060 11.568467725410148
Al 6.321328165088051 -18.755012829004144 -13.917302047128276 -8.279657271540556 -1.762080196957771 8.453696727529726
Al 17.902791295981121 5.753161151152324 17.114691644414201 -3.873613998395574 -2.302161068973822 -5.626566659828656
Al 27.869935040383858 16.051014651394208 25.373563264881845 -6.293713415452679 -13.390711971180078 -9.135262763270216
Al 16.036061111166429 12.441734989341484 14.609024362625457 -5.133388149546171 7.085664811782272 4.862869909427784
Al 10.090907823485205 0.395989694493129 5.122187639559179 1.494329986904648 1.976682767650019 1.718083050968845
Al 16.649062367247140 12.010228156281674 3.025457903120519 3.480145662643249 6.770584362054925 -7.106820324545524
Al 4.909615121902413 29.943462717522934 13.792051974252553 2.299363344960624 -2.015454907062585 1.918850225990979
Al 14.247011899892652 3.571607008496051 -4.050691452296265 5.744446907527187 -8.078987037871389 -7.391155680820613
Al 11.337815731228385 7.673840174058043 3.366847689148515 3.160994780815860 0.383901147429809 -11.777620372151649
Al 20.023320496335629 28.138488098798437 9.357033720515473 -7.173920564348797 4.083714291422998 6.573936250881565
Al -8.962476835776197 20.671145226495121 10.171899449086936 7.650926533003062 1.586297892813363 -4.482280426461174
Al 40.666871716371055 9.904640392839372 2.659123729896488 -4.958467905305281 -3.768603841727006 4.152330908249060
Al 7.481912819702558 19.016414154365229 -4.334414119421034 4.794399083778478 -2.977326909877581 -0.129847180247037
Al 21.190135808804740 17.104303822994122 36.964594449108915 -7.696718630423064 1.953697112049330 -6.011938689969636
Al 18.209235545259364 14.062592742314372 19.006442234734934 1.291493619435770 -3.392673468049261 -2.208001341087053
Al 19.658009732650079 8.802287452943025 5.093870301280469 2.941163030535230 -3.810848751804868 3.320195734351434
Al 3.619406490554150 -8.348327338045083 10.270833713317534 1.861464415707688 2.735073760777486 -2.082801072266243
Al 8.047652894305193 5.885370959729745 -2.241809979957782 -3.743597736806510 4.503474064871265 4.947400714315458
Al 22.126753113166288 4.781384085519166 -0.894427788013389 -1.682868318758602 6.967972080326940 -3.390835169809290
Al 17.509340488335610 3.564583694024086 22.994282725609040 8.917856265196709 -6.060705261637200 -6.125678800491914
